-------------------------------------------------------------------------------
Page 1                     Optimal Data Analysis           10:34:05  04-05-22
 
VARS V1 TO V2;
CLASS V2;
ATTRIBUTE V1;
CAT V1;
MCARLO ITER 1000;
LOO;
GO;
 
Note: In all classification performance summary tables, the following
abbreviations are used: NP = Number Predicted; PV = Predictive Value;
NA = Number Actual; PAC = Percentage Accuracy in Classification.
 
Input file:   DATA.TXT                                                                                                                            
Output file:  MODEL.OUT                                                                                                                           
Command file: ODA.PGM                                                                                                                             
 
Class:       V2
Attribute:   V1
Weight:       NONE
Gen:         OFF
Obs:         407
Missing:     0
Excluded:    0
Classes:     2
Solution:    OPTIMAL
Time (sec):  0
Hypothesis:  NONDIRECTIONAL
Categorical: ON
Priors:      ON
Degen:       OFF
Primary:     MAXSENS
Secondary:   SAMPLEREP
 
-------------------------------------------------------------------------------
Page 2                     Optimal Data Analysis           10:34:05  04-05-22
 
ODA model:
----------
IF V1 = 0 THEN V2 = 0
IF V1 = 1 THEN V2 = 1
 
 
Monte Carlo summary (Fisher randomization):
-------------------------------------------
Iterations:  1000
Estimated p: 0.000000
 
 
Confidence levels for estimated p:
----------------------------------
Desired p   Confidence      Desired p   Confidence
---------   ----------      ---------   ----------
 p<.001        63.27%         p>.001        36.73%
 p<.01        100.00%         p>.01          0.00%
 p<.05        100.00%         p>.05          0.00%
 p<.10        100.00%         p>.10          0.00%
 
Fisher's exact test (nondirectional) training table  p = .113E-0019
 
Classification performance summary:
-----------------------------------
Correct:     295
Incorrect:   112
Overall PAC:   72.48%
Mean PAC:      73.52%
 
Class      Predicted
 V2        0       1       
       ----------------- NA      PAC
A      |       |       |
c     0|  118  |  34   | 152    77.63%
t      |       |       |
u     1|  78   |  177  | 255    69.41%
a      |       |       |
l      -----------------
   NP     196     211  
   PV    60.20%  83.89%  Mean PV   72.05%
 
Effect strength PAC    47.04%      Effect strength PV   44.09%
-------------------------------------------------------------------------------
Page 3                     Optimal Data Analysis           10:34:05  04-05-22
 
Results of leave-one-out analysis
---------------------------------
407 observations
 
Fisher's exact test (directional) classification table  p = .922E-0020
 
Classification performance summary:
-----------------------------------
Correct:     295
Incorrect:   112
Overall PAC:   72.48%
Mean PAC:      73.52%
 
Class      Predicted
 V2        0       1       
       ----------------- NA      PAC
A      |       |       |
c     0|  118  |  34   | 152    77.63%
t      |       |       |
u     1|  78   |  177  | 255    69.41%
a      |       |       |
l      -----------------
   NP     196     211  
   PV    60.20%  83.89%  Mean PV   72.05%
 
Effect strength PAC    47.04%      Effect strength PV   44.09%
 
Summary for Class V2  Attribute V1
----------------------------------
                                           
Performance Index           Train    LOO   
-----------------          ------  ------
Overall Accuracy            72.48%  72.48%
PAC V2=0                    77.63%  77.63%
PAC V2=1                    69.41%  69.41%
Effect Strength PAC         47.04%  47.04%
PV V2=0                     60.20%  60.20%
PV V2=1                     83.89%  83.89%
Effect Strength PV          44.09%  44.09%
Effect Strength Total       45.57%  45.57%
 
